Version 4
SHEET 1 2600 1264
WIRE 1424 -80 1264 -80
WIRE 1552 -80 1552 -128
WIRE 1552 -80 1424 -80
WIRE 1664 -80 1552 -80
WIRE 1264 -64 1264 -80
WIRE 2192 -64 2144 -64
WIRE 2368 -64 2272 -64
WIRE 1424 -32 1424 -80
WIRE 1664 -32 1664 -80
WIRE -272 16 -272 -64
WIRE -384 48 -384 -32
WIRE 1264 48 1264 0
WIRE 1664 80 1664 48
WIRE 2000 80 1664 80
WIRE 2144 80 2144 -64
WIRE 2144 80 2080 80
WIRE 704 96 640 96
WIRE 864 96 784 96
WIRE 2224 96 2224 80
WIRE 2384 96 2224 96
WIRE 2224 128 2224 96
WIRE 2144 144 2144 80
WIRE 2192 144 2144 144
WIRE -384 160 -384 128
WIRE -384 160 -480 160
WIRE -272 160 -272 96
WIRE -272 160 -384 160
WIRE -256 160 -272 160
WIRE -96 160 -176 160
WIRE 2368 160 2368 -64
WIRE 2368 160 2256 160
WIRE 2544 160 2368 160
WIRE 1424 176 1424 48
WIRE 2000 176 1424 176
WIRE 2144 176 2080 176
WIRE 2192 176 2144 176
WIRE -384 192 -384 160
WIRE 2144 192 2144 176
WIRE -480 208 -480 160
WIRE 768 224 768 208
WIRE 928 224 768 224
WIRE 2224 224 2224 192
WIRE 2304 224 2224 224
WIRE 1424 240 1424 176
WIRE 1664 240 1664 80
WIRE 2224 240 2224 224
WIRE 768 256 768 224
WIRE 512 272 448 272
WIRE 640 272 640 96
WIRE 640 272 592 272
WIRE 736 272 640 272
WIRE 864 288 864 96
WIRE 864 288 800 288
WIRE 1088 288 864 288
WIRE 1232 288 1168 288
WIRE 1360 288 1232 288
WIRE 1792 288 1728 288
WIRE 2304 288 2304 224
WIRE 2384 288 2384 96
WIRE 736 304 672 304
WIRE 2144 304 2144 272
WIRE -384 336 -384 272
WIRE 448 336 448 272
WIRE 1232 336 1232 288
WIRE 672 352 672 304
WIRE 768 352 768 320
WIRE 848 352 768 352
WIRE 1792 352 1792 288
WIRE 768 368 768 352
WIRE 2304 384 2304 352
WIRE 2352 384 2304 384
WIRE 2384 384 2384 352
WIRE 2384 384 2352 384
WIRE 1424 400 1424 336
WIRE 1520 400 1424 400
WIRE 1664 400 1664 336
WIRE 1664 400 1520 400
WIRE 848 416 848 352
WIRE 928 416 928 224
WIRE 2352 416 2352 384
WIRE 448 448 448 416
WIRE 1232 448 1232 416
WIRE 848 512 848 480
WIRE 896 512 848 512
WIRE 928 512 928 480
WIRE 928 512 896 512
WIRE 896 544 896 512
WIRE 1520 608 1520 400
WIRE 1216 656 672 656
WIRE 1376 656 1296 656
WIRE 1456 656 1376 656
WIRE 1376 704 1376 656
WIRE 672 720 672 656
WIRE 672 832 672 800
WIRE 1376 832 1376 784
WIRE 1520 880 1520 704
WIRE 1520 1120 1520 960
FLAG -480 208 0
FLAG -384 -32 V+
FLAG -384 336 V-
FLAG -96 160 AGND
FLAG 768 208 V+
FLAG 768 368 V-
FLAG 672 352 AGND
FLAG 448 448 0
FLAG 1792 352 0
FLAG 896 544 AGND
FLAG 2224 80 V+
FLAG 2224 240 V-
FLAG 2352 416 AGND
FLAG 2144 304 AGND
FLAG 1232 448 AGND
FLAG 1376 832 AGND
FLAG 1264 48 AGND
FLAG 1552 -128 V+
FLAG 2544 160 out
FLAG 672 832 0
FLAG 1520 1120 V-
SYMBOL voltage -384 32 R0
WINDOW 123 0 0 Left 0
WINDOW 39 0 0 Left 0
SYMATTR InstName V1
SYMATTR Value 12
SYMBOL voltage -384 176 R0
WINDOW 123 0 0 Left 0
WINDOW 39 0 0 Left 0
SYMATTR InstName V2
SYMATTR Value 12
SYMBOL res -160 144 R90
WINDOW 0 0 56 VBottom 2
WINDOW 3 32 56 VTop 2
SYMATTR InstName R1
SYMATTR Value 1
SYMBOL NE5532 768 224 R0
SYMATTR InstName U1
SYMBOL Misc\\signal 448 320 R0
WINDOW 123 0 0 Left 0
WINDOW 39 0 0 Left 0
SYMATTR InstName V3
SYMATTR Value SINE(0 1 10k)
SYMBOL res 608 256 R90
WINDOW 0 0 56 VBottom 2
WINDOW 3 32 56 VTop 2
SYMATTR InstName R2
SYMATTR Value 1k
SYMBOL res 800 80 R90
WINDOW 0 0 56 VBottom 2
WINDOW 3 32 56 VTop 2
SYMATTR InstName R3
SYMATTR Value 2k
SYMBOL npn 1360 240 R0
SYMATTR InstName Q1
SYMATTR Value BC847A
SYMBOL npn 1728 240 M0
SYMATTR InstName Q2
SYMATTR Value BC847A
SYMBOL npn 1456 608 R0
SYMATTR InstName Q3
SYMATTR Value BC847A
SYMBOL res 1408 -48 R0
SYMATTR InstName R5
SYMATTR Value 10k
SYMBOL res 1648 -48 R0
SYMATTR InstName R6
SYMATTR Value 10k
SYMBOL cap 832 416 R0
SYMATTR InstName C1
SYMATTR Value 100n
SYMBOL cap 912 416 R0
SYMATTR InstName C2
SYMATTR Value 100n
SYMBOL NE5532 2224 96 R0
SYMATTR InstName U2
SYMBOL cap 2288 288 R0
SYMATTR InstName C3
SYMATTR Value 100n
SYMBOL cap 2368 288 R0
SYMATTR InstName C4
SYMATTR Value 100n
SYMBOL res 2096 160 R90
WINDOW 0 0 56 VBottom 2
WINDOW 3 32 56 VTop 2
SYMATTR InstName R7
SYMATTR Value 39k
SYMBOL res 2096 64 R90
WINDOW 0 0 56 VBottom 2
WINDOW 3 32 56 VTop 2
SYMATTR InstName R8
SYMATTR Value 39k
SYMBOL res 2128 176 R0
SYMATTR InstName R9
SYMATTR Value 10k
SYMBOL res 2288 -80 R90
WINDOW 0 0 56 VBottom 2
WINDOW 3 32 56 VTop 2
SYMATTR InstName R10
SYMATTR Value 10k
SYMBOL res 1216 320 R0
SYMATTR InstName R11
SYMATTR Value 200
SYMBOL res 1184 272 R90
WINDOW 0 0 56 VBottom 2
WINDOW 3 32 56 VTop 2
SYMATTR InstName R12
SYMATTR Value 10k
SYMBOL res 1504 864 R0
SYMATTR InstName R13
SYMATTR Value 10k
SYMBOL res 1312 640 R90
WINDOW 0 0 56 VBottom 2
WINDOW 3 32 56 VTop 2
SYMATTR InstName R14
SYMATTR Value 1k
SYMBOL res 1392 800 R180
WINDOW 0 36 76 Left 2
WINDOW 3 36 40 Left 2
SYMATTR InstName R15
SYMATTR Value 10k
SYMBOL voltage -272 0 R0
WINDOW 123 0 0 Left 0
WINDOW 39 0 0 Left 0
SYMATTR InstName V4
SYMATTR Value 5V
SYMBOL cap 1248 -64 R0
SYMATTR InstName C5
SYMATTR Value 100n
SYMBOL Misc\\signal 672 704 R0
WINDOW 123 0 0 Left 0
WINDOW 39 0 0 Left 0
SYMATTR InstName V5
SYMATTR Value SINE(0.65 0.65 200)
TEXT -504 440 Left 2 !.tran 0 10m 0 1u
TEXT -488 480 Left 2 !.include NE5532.sub
