Version 4
SHEET 1 2600 1264
WIRE 1424 -80 1264 -80
WIRE 1552 -80 1552 -128
WIRE 1552 -80 1424 -80
WIRE 1664 -80 1552 -80
WIRE 1264 -64 1264 -80
WIRE 2192 -64 2144 -64
WIRE 2368 -64 2272 -64
WIRE 1424 -32 1424 -80
WIRE 1664 -32 1664 -80
WIRE -272 16 -272 -64
WIRE 736 32 672 32
WIRE 896 32 816 32
WIRE -384 48 -384 -32
WIRE 1264 48 1264 0
WIRE 1664 80 1664 48
WIRE 2000 80 1664 80
WIRE 2144 80 2144 -64
WIRE 2144 80 2080 80
WIRE 2224 96 2224 80
WIRE 2384 96 2224 96
WIRE 2224 128 2224 96
WIRE 2144 144 2144 80
WIRE 2192 144 2144 144
WIRE -384 160 -384 128
WIRE -384 160 -480 160
WIRE -272 160 -272 96
WIRE -272 160 -384 160
WIRE -256 160 -272 160
WIRE -96 160 -176 160
WIRE 800 160 800 144
WIRE 960 160 800 160
WIRE 2368 160 2368 -64
WIRE 2368 160 2256 160
WIRE 2544 160 2368 160
WIRE 1424 176 1424 48
WIRE 2000 176 1424 176
WIRE 2144 176 2080 176
WIRE 2192 176 2144 176
WIRE -384 192 -384 160
WIRE 800 192 800 160
WIRE 2144 192 2144 176
WIRE -480 208 -480 160
WIRE 544 208 480 208
WIRE 672 208 672 32
WIRE 672 208 624 208
WIRE 768 208 672 208
WIRE 896 224 896 32
WIRE 896 224 832 224
WIRE 1056 224 896 224
WIRE 2224 224 2224 192
WIRE 2304 224 2224 224
WIRE 768 240 704 240
WIRE 1424 240 1424 176
WIRE 1664 240 1664 80
WIRE 2224 240 2224 224
WIRE 1056 256 1056 224
WIRE 1088 256 1056 256
WIRE 1232 256 1168 256
WIRE 480 272 480 208
WIRE 704 288 704 240
WIRE 800 288 800 256
WIRE 880 288 800 288
WIRE 1232 288 1232 256
WIRE 1360 288 1232 288
WIRE 1792 288 1728 288
WIRE 2304 288 2304 224
WIRE 2384 288 2384 96
WIRE 800 304 800 288
WIRE 2144 304 2144 272
WIRE -384 336 -384 272
WIRE 1232 336 1232 288
WIRE 880 352 880 288
WIRE 960 352 960 160
WIRE 1792 352 1792 288
WIRE 480 384 480 352
WIRE 2304 384 2304 352
WIRE 2352 384 2304 384
WIRE 2384 384 2384 352
WIRE 2384 384 2352 384
WIRE 1424 400 1424 336
WIRE 1520 400 1424 400
WIRE 1664 400 1664 336
WIRE 1664 400 1520 400
WIRE 2352 416 2352 384
WIRE 880 448 880 416
WIRE 928 448 880 448
WIRE 960 448 960 416
WIRE 960 448 928 448
WIRE 1232 448 1232 416
WIRE 928 480 928 448
WIRE 784 704 720 704
WIRE 944 704 864 704
WIRE 1520 736 1520 400
WIRE 1344 784 1344 672
WIRE 48 816 -112 816
WIRE 128 816 48 816
WIRE 288 816 208 816
WIRE 416 816 288 816
WIRE 848 832 848 816
WIRE 1008 832 848 832
WIRE 288 864 288 816
WIRE 848 864 848 832
WIRE -112 880 -112 816
WIRE 720 880 720 704
WIRE 720 880 672 880
WIRE 816 880 720 880
WIRE 944 896 944 704
WIRE 944 896 880 896
WIRE 816 912 752 912
WIRE 1344 928 1344 880
WIRE 1520 928 1520 816
WIRE 1520 928 1344 928
WIRE 752 960 752 912
WIRE 848 960 848 928
WIRE 928 960 848 960
WIRE 848 976 848 960
WIRE -112 992 -112 960
WIRE 288 992 288 944
WIRE 1520 1008 1520 928
WIRE 928 1024 928 960
WIRE 1008 1024 1008 832
WIRE 480 1120 480 1072
WIRE 928 1120 928 1088
WIRE 976 1120 928 1120
WIRE 1008 1120 1008 1088
WIRE 1008 1120 976 1120
WIRE 1520 1120 1520 1088
WIRE 976 1152 976 1120
FLAG -480 208 0
FLAG -384 -32 V+
FLAG -384 336 V-
FLAG -96 160 AGND
FLAG 800 144 V+
FLAG 800 304 V-
FLAG 704 288 AGND
FLAG 480 384 0
FLAG 1792 352 0
FLAG 480 1120 V-
FLAG 928 480 AGND
FLAG 2224 80 V+
FLAG 2224 240 V-
FLAG 2352 416 AGND
FLAG 2144 304 AGND
FLAG 1232 448 AGND
FLAG 288 992 AGND
FLAG 48 816 CV
FLAG 1264 48 AGND
FLAG 1552 -128 V+
FLAG 2544 160 out
FLAG -112 992 0
FLAG 1344 672 AGND
FLAG 1520 1120 V-
FLAG 848 816 V+
FLAG 848 976 V-
FLAG 752 960 AGND
FLAG 976 1152 AGND
SYMBOL voltage -384 32 R0
WINDOW 123 0 0 Left 0
WINDOW 39 0 0 Left 0
SYMATTR InstName V1
SYMATTR Value 12
SYMBOL voltage -384 176 R0
WINDOW 123 0 0 Left 0
WINDOW 39 0 0 Left 0
SYMATTR InstName V2
SYMATTR Value 12
SYMBOL res -160 144 R90
WINDOW 0 0 56 VBottom 2
WINDOW 3 32 56 VTop 2
SYMATTR InstName R1
SYMATTR Value 1
SYMBOL NE5532 800 160 R0
SYMATTR InstName U1
SYMBOL Misc\\signal 480 256 R0
WINDOW 123 0 0 Left 0
WINDOW 39 0 0 Left 0
SYMATTR InstName V3
SYMATTR Value SINE(0 1 10k)
SYMBOL res 640 192 R90
WINDOW 0 0 56 VBottom 2
WINDOW 3 32 56 VTop 2
SYMATTR InstName R2
SYMATTR Value 1k
SYMBOL res 832 16 R90
WINDOW 0 0 56 VBottom 2
WINDOW 3 32 56 VTop 2
SYMATTR InstName R3
SYMATTR Value 2k
SYMBOL npn 1360 240 R0
SYMATTR InstName Q1
SYMATTR Value BC847A
SYMBOL npn 1728 240 M0
SYMATTR InstName Q2
SYMATTR Value BC847A
SYMBOL npn 1280 784 R0
SYMATTR InstName Q3
SYMATTR Value BC847A
SYMBOL res 1408 -48 R0
SYMATTR InstName R5
SYMATTR Value 10k
SYMBOL res 1648 -48 R0
SYMATTR InstName R6
SYMATTR Value 10k
SYMBOL cap 864 352 R0
SYMATTR InstName C1
SYMATTR Value 100n
SYMBOL cap 944 352 R0
SYMATTR InstName C2
SYMATTR Value 100n
SYMBOL NE5532 2224 96 R0
SYMATTR InstName U2
SYMBOL cap 2288 288 R0
SYMATTR InstName C3
SYMATTR Value 100n
SYMBOL cap 2368 288 R0
SYMATTR InstName C4
SYMATTR Value 100n
SYMBOL res 2096 160 R90
WINDOW 0 0 56 VBottom 2
WINDOW 3 32 56 VTop 2
SYMATTR InstName R7
SYMATTR Value 39k
SYMBOL res 2096 64 R90
WINDOW 0 0 56 VBottom 2
WINDOW 3 32 56 VTop 2
SYMATTR InstName R8
SYMATTR Value 39k
SYMBOL res 2128 176 R0
SYMATTR InstName R9
SYMATTR Value 10k
SYMBOL res 2288 -80 R90
WINDOW 0 0 56 VBottom 2
WINDOW 3 32 56 VTop 2
SYMATTR InstName R10
SYMATTR Value 10k
SYMBOL res 1216 320 R0
SYMATTR InstName R11
SYMATTR Value 200
SYMBOL res 1184 240 R90
WINDOW 0 0 56 VBottom 2
WINDOW 3 32 56 VTop 2
SYMATTR InstName R12
SYMATTR Value 10k
SYMBOL res 1504 992 R0
SYMATTR InstName R13
SYMATTR Value 1k
SYMBOL res 224 800 R90
WINDOW 0 0 56 VBottom 2
WINDOW 3 32 56 VTop 2
SYMATTR InstName R14
SYMATTR Value 1k
SYMBOL res 304 960 R180
WINDOW 0 36 76 Left 2
WINDOW 3 36 40 Left 2
SYMATTR InstName R15
SYMATTR Value 100
SYMBOL voltage -272 0 R0
WINDOW 123 0 0 Left 0
WINDOW 39 0 0 Left 0
SYMATTR InstName V4
SYMATTR Value 5V
SYMBOL cap 1248 -64 R0
SYMATTR InstName C5
SYMATTR Value 100n
SYMBOL Misc\\signal -112 864 R0
WINDOW 123 0 0 Left 0
WINDOW 39 0 0 Left 0
SYMATTR InstName V5
SYMATTR Value PULSE(0 5 0 1n 1n 100u 200u 10)
SYMBOL res 1504 720 R0
SYMATTR InstName R4
SYMATTR Value 1k
SYMBOL NE5532 848 832 R0
SYMATTR InstName U3
SYMBOL res 880 688 R90
WINDOW 0 0 56 VBottom 2
WINDOW 3 32 56 VTop 2
SYMATTR InstName R16
SYMATTR Value 2k
SYMBOL cap 912 1024 R0
SYMATTR InstName C6
SYMATTR Value 100n
SYMBOL cap 992 1024 R0
SYMATTR InstName C7
SYMATTR Value 100n
TEXT -504 440 Left 2 !.tran 0 10m 0 1u
TEXT -488 480 Left 2 !.include NE5532.sub
